&jules_hydrology
l_limit_gsoil=.false.,
l_pdm=.false.,
l_top=.false.,
/
