&jules_input_grid
grid_is_1d=.false.,
nx=1,
ny=1,
/
&jules_latlon
const_val=41.1651,-96.4766,
nvars=2,
read_from_dump=.false.,
use_file=.false.,.false.,
var='latitude','longitude',
/
&jules_land_frac
/
&jules_model_grid
force_1d_grid=.false.,
land_only=.false.,
use_subgrid=.false.,
/
&jules_nlsizes
bl_levels=1,
/
&jules_surf_hgt
zero_height=.true.,
/
