&jules_drive
bl_height=1000.0,
data_end='2013-01-01 05:00:00',
data_period=3600,
data_start='2007-01-01 06:00:00',
file='./data/mead_2007_2012_drive.dat',
interp=8*'nf',
l_daily_disagg=.false.,
l_imogen=.false.,
l_perturb_driving=.false.,
nvars=8,
read_list=.false.,
t_for_snow=274.15,
tpl_name=8*'',
var='sw_down','lw_down','precip','t','wind','pstar','q',
'diff_rad',
var_name=8*'',
z1_tq_in=2.0,
z1_tq_vary=.false.,
z1_uv_in=10.0,
/
