&jules_soil_biogeochem
kaps=5.0e-9,
l_layeredc=.false.,
l_q10=.true.,
l_soil_resp_lev2=.false.,
q10_soil=2.0,
soil_bgc_model=1,
/
