&jules_time
l_360=.false.,
l_leap=.true.,
main_run_end='2009-01-01 05:00:00',
main_run_start='2008-01-01 06:00:00',
timestep_len=1800,
/
&jules_spinup
max_spinup_cycles=0,
/
